[General]
network = SimpleRouterNetwork
sim-time-limit = 10s
cmdenv-express-mode = false
cmdenv-autoflush = true

# Sender 配置
*.sender.srcAddr  = 1
*.sender.interval = 1.0

# SimpleRouter 本机地址（题目要求的 "address" 参数）
*.router.address = 5

# 两个接收端的地址，与路由表 {10->out[0], 20->out[1]} 对应
*.receiver0.address = 10
*.receiver1.address = 20
