[General]
network = StatsDemo
sim-time-limit = 30s
cmdenv-express-mode = false
cmdenv-autoflush = true

# 让 uniform() 在不同次运行间可复现
seed-set = 0

*.src.numPackets  = 20
*.src.interval    = 1.0
*.filter.dropProb = 0.3
