[General]
network = RouterNetwork
sim-time-limit = 10s
cmdenv-express-mode = false
cmdenv-autoflush = true

*.sender.srcAddr  = 1
*.sender.interval = 1.0
*.router.myAddr   = 5
