[General]
network = RouterNetwork
sim-time-limit = 6s
cmdenv-express-mode = false
cmdenv-autoflush = true

*.sender.srcAddr  = 99
*.sender.interval = 1.0
