[General]
network = PingPongNetwork
sim-time-limit = 10s
cmdenv-express-mode = false
cmdenv-autoflush = true

*.nodeA.myAddr   = 1
*.nodeB.myAddr   = 2
*.nodeA.waitTime = 0.5
*.nodeB.waitTime = 1.0
